data_image0
_chemical_formula_structural       C96H120N48Zn12
_chemical_formula_sum              "C96 H120 N48 Zn12"
_cell_length_a       16.8509
_cell_length_b       16.8509
_cell_length_c       16.8509
_cell_angle_alpha    90
_cell_angle_beta     90
_cell_angle_gamma    90

_space_group_name_H-M_alt    "P 1"
_space_group_IT_number       1

loop_
  _space_group_symop_operation_xyz
  'x, y, z'

loop_
  _atom_site_type_symbol
  _atom_site_label
  _atom_site_symmetry_multiplicity
  _atom_site_fract_x
  _atom_site_fract_y
  _atom_site_fract_z
  _atom_site_occupancy
  C   C1        1.0  0.11402  0.54724  0.88598  1.0000
  C   C2        1.0  0.17070  0.42959  0.88764  1.0000
  C   C3        1.0  0.11236  0.42960  0.82929  1.0000
  C   C4        1.0  0.09725  0.63329  0.90258  1.0000
  C   C5        1.0  0.04724  0.38598  0.61402  1.0000
  C   C6        1.0  0.92949  0.32951  0.61214  1.0000
  C   C7        1.0  0.92942  0.38802  0.67033  1.0000
  C   C8        1.0  0.13050  0.40874  0.59142  1.0000
  C   C9        1.0  0.88598  0.54724  0.11402  1.0000
  C   C10       1.0  0.88792  0.42946  0.17042  1.0000
  C   C11       1.0  0.82961  0.42945  0.11205  1.0000
  C   C12       1.0  0.90858  0.63050  0.09125  1.0000
  C   C13       1.0  0.88598  0.45276  0.88598  1.0000
  C   C14       1.0  0.88772  0.57045  0.82937  1.0000
  C   C15       1.0  0.82981  0.57065  0.88816  1.0000
  C   C16       1.0  0.90860  0.36950  0.90873  1.0000
  C   C17       1.0  0.61402  0.38598  0.04724  1.0000
  C   C18       1.0  0.61216  0.32950  0.92950  1.0000
  C   C19       1.0  0.67091  0.38743  0.92969  1.0000
  C   C20       1.0  0.59740  0.40273  0.13329  1.0000
  C   C21       1.0  0.11402  0.88598  0.54724  1.0000
  C   C22       1.0  0.17038  0.88796  0.42944  1.0000
  C   C23       1.0  0.11208  0.82957  0.42947  1.0000
  C   C24       1.0  0.09125  0.90857  0.63050  1.0000
  C   C25       1.0  0.04724  0.61402  0.38598  1.0000
  C   C26       1.0  0.92954  0.61226  0.32939  1.0000
  C   C27       1.0  0.92964  0.67081  0.38754  1.0000
  C   C28       1.0  0.13329  0.59741  0.40274  1.0000
  C   C29       1.0  0.54724  0.88598  0.11402  1.0000
  C   C30       1.0  0.42957  0.88768  0.17066  1.0000
  C   C31       1.0  0.42961  0.82925  0.11241  1.0000
  C   C32       1.0  0.63329  0.90258  0.09725  1.0000
  C   C33       1.0  0.45276  0.88598  0.88598  1.0000
  C   C34       1.0  0.57056  0.82962  0.88797  1.0000
  C   C35       1.0  0.57053  0.88791  0.82956  1.0000
  C   C36       1.0  0.36950  0.90875  0.90857  1.0000
  C   C37       1.0  0.54724  0.11402  0.88598  1.0000
  C   C38       1.0  0.42954  0.11226  0.82939  1.0000
  C   C39       1.0  0.42964  0.17081  0.88754  1.0000
  C   C40       1.0  0.63329  0.09741  0.90274  1.0000
  C   C41       1.0  0.38598  0.04724  0.61402  1.0000
  C   C42       1.0  0.32933  0.92957  0.61232  1.0000
  C   C43       1.0  0.38760  0.92961  0.67075  1.0000
  C   C44       1.0  0.40275  0.13329  0.59742  1.0000
  C   C45       1.0  0.88598  0.88598  0.45276  1.0000
  C   C46       1.0  0.82978  0.88813  0.57064  1.0000
  C   C47       1.0  0.88775  0.82940  0.57046  1.0000
  C   C48       1.0  0.90877  0.90855  0.36950  1.0000
  C   C49       1.0  0.88598  0.11402  0.54724  1.0000
  C   C50       1.0  0.88761  0.17073  0.42960  1.0000
  C   C51       1.0  0.82932  0.11234  0.42958  1.0000
  C   C52       1.0  0.90257  0.09725  0.63329  1.0000
  C   C53       1.0  0.38598  0.95276  0.38598  1.0000
  C   C54       1.0  0.32959  0.07055  0.38793  1.0000
  C   C55       1.0  0.38794  0.07055  0.32960  1.0000
  C   C56       1.0  0.40875  0.86950  0.40857  1.0000
  C   C57       1.0  0.38598  0.38598  0.95276  1.0000
  C   C58       1.0  0.38768  0.32933  0.07043  1.0000
  C   C59       1.0  0.32925  0.38760  0.07039  1.0000
  C   C60       1.0  0.40258  0.40275  0.86671  1.0000
  C   C61       1.0  0.45276  0.11402  0.11402  1.0000
  C   C62       1.0  0.57059  0.17032  0.11198  1.0000
  C   C63       1.0  0.57051  0.11214  0.17049  1.0000
  C   C64       1.0  0.36950  0.09124  0.09144  1.0000
  C   C65       1.0  0.11402  0.11402  0.45276  1.0000
  C   C66       1.0  0.11255  0.17090  0.57032  1.0000
  C   C67       1.0  0.17052  0.11217  0.57049  1.0000
  C   C68       1.0  0.09744  0.09723  0.36671  1.0000
  C   C69       1.0  0.61402  0.04724  0.38598  1.0000
  C   C70       1.0  0.61204  0.92944  0.32962  1.0000
  C   C71       1.0  0.67043  0.92946  0.38792  1.0000
  C   C72       1.0  0.59143  0.13050  0.40875  1.0000
  C   C73       1.0  0.95276  0.38598  0.38598  1.0000
  C   C74       1.0  0.07056  0.32962  0.38797  1.0000
  C   C75       1.0  0.07053  0.38791  0.32956  1.0000
  C   C76       1.0  0.86950  0.40875  0.40857  1.0000
  C   C77       1.0  0.11402  0.45276  0.11402  1.0000
  C   C78       1.0  0.11235  0.57042  0.17069  1.0000
  C   C79       1.0  0.17072  0.57040  0.11238  1.0000
  C   C80       1.0  0.09742  0.36671  0.09725  1.0000
  C   C81       1.0  0.95276  0.61402  0.61402  1.0000
  C   C82       1.0  0.07033  0.61254  0.67088  1.0000
  C   C83       1.0  0.07049  0.67053  0.61218  1.0000
  C   C84       1.0  0.86671  0.59744  0.59723  1.0000
  C   C85       1.0  0.61402  0.61402  0.95276  1.0000
  C   C86       1.0  0.67045  0.61210  0.07053  1.0000
  C   C87       1.0  0.61202  0.67037  0.07057  1.0000
  C   C88       1.0  0.59125  0.59142  0.86950  1.0000
  C   C89       1.0  0.61402  0.95276  0.61402  1.0000
  C   C90       1.0  0.61235  0.07042  0.67069  1.0000
  C   C91       1.0  0.67072  0.07040  0.61238  1.0000
  C   C92       1.0  0.59742  0.86671  0.59725  1.0000
  C   C93       1.0  0.38598  0.61402  0.04724  1.0000
  C   C94       1.0  0.38761  0.67073  0.92960  1.0000
  C   C95       1.0  0.32932  0.61234  0.92958  1.0000
  C   C96       1.0  0.40257  0.59725  0.13329  1.0000
  H   H1        1.0  0.21224  0.38301  0.90603  1.0000
  H   H2        1.0  0.09386  0.38290  0.78792  1.0000
  H   H3        1.0  0.03285  0.64617  0.89844  1.0000
  H   H4        1.0  0.11877  0.65013  0.96234  1.0000
  H   H5        1.0  0.12750  0.67206  0.85858  1.0000
  H   H6        1.0  0.88232  0.28924  0.59249  1.0000
  H   H7        1.0  0.88220  0.40764  0.71058  1.0000
  H   H8        1.0  0.16612  0.42432  0.64451  1.0000
  H   H9        1.0  0.16015  0.35971  0.55925  1.0000
  H   H10       1.0  0.13054  0.46166  0.55200  1.0000
  H   H11       1.0  0.90764  0.38226  0.21063  1.0000
  H   H12       1.0  0.78929  0.38227  0.09249  1.0000
  H   H13       1.0  0.85547  0.66615  0.07581  1.0000
  H   H14       1.0  0.94087  0.66011  0.14022  1.0000
  H   H15       1.0  0.94787  0.63055  0.03824  1.0000
  H   H16       1.0  0.90723  0.61755  0.78895  1.0000
  H   H17       1.0  0.78971  0.61793  0.90792  1.0000
  H   H18       1.0  0.85555  0.33396  0.92460  1.0000
  H   H19       1.0  0.94050  0.33976  0.85957  1.0000
  H   H20       1.0  0.94826  0.36947  0.96146  1.0000
  H   H21       1.0  0.59355  0.28817  0.88281  1.0000
  H   H22       1.0  0.71249  0.40572  0.88309  1.0000
  H   H23       1.0  0.60196  0.46707  0.14629  1.0000
  H   H24       1.0  0.53747  0.38160  0.15000  1.0000
  H   H25       1.0  0.64113  0.37211  0.17208  1.0000
  H   H26       1.0  0.21055  0.90772  0.38222  1.0000
  H   H27       1.0  0.09257  0.78921  0.38230  1.0000
  H   H28       1.0  0.07589  0.85546  0.66617  1.0000
  H   H29       1.0  0.14019  0.94094  0.66008  1.0000
  H   H30       1.0  0.03818  0.94779  0.63055  1.0000
  H   H31       1.0  0.88291  0.59377  0.28796  1.0000
  H   H32       1.0  0.88300  0.71228  0.40594  1.0000
  H   H33       1.0  0.14623  0.60175  0.46711  1.0000
  H   H34       1.0  0.15006  0.53757  0.38141  1.0000
  H   H35       1.0  0.17207  0.64128  0.37231  1.0000
  H   H36       1.0  0.38297  0.90612  0.21216  1.0000
  H   H37       1.0  0.38294  0.78784  0.09394  1.0000
  H   H38       1.0  0.64620  0.89836  0.03287  1.0000
  H   H39       1.0  0.65010  0.96238  0.11869  1.0000
  H   H40       1.0  0.67206  0.85864  0.12758  1.0000
  H   H41       1.0  0.61778  0.78946  0.90773  1.0000
  H   H42       1.0  0.61770  0.90743  0.78920  1.0000
  H   H43       1.0  0.33383  0.92411  0.85545  1.0000
  H   H44       1.0  0.33992  0.85982  0.94095  1.0000
  H   H45       1.0  0.36945  0.96182  0.94779  1.0000
  H   H46       1.0  0.38291  0.09377  0.78796  1.0000
  H   H47       1.0  0.38300  0.21228  0.90594  1.0000
  H   H48       1.0  0.64623  0.10175  0.96711  1.0000
  H   H49       1.0  0.65006  0.03757  0.88141  1.0000
  H   H50       1.0  0.67207  0.14128  0.87231  1.0000
  H   H51       1.0  0.28783  0.88297  0.59389  1.0000
  H   H52       1.0  0.40607  0.88294  0.71216  1.0000
  H   H53       1.0  0.46713  0.14620  0.60163  1.0000
  H   H54       1.0  0.38130  0.15010  0.53763  1.0000
  H   H55       1.0  0.37243  0.17206  0.64137  1.0000
  H   H56       1.0  0.78979  0.90805  0.61794  1.0000
  H   H57       1.0  0.90710  0.78887  0.61754  1.0000
  H   H58       1.0  0.92379  0.85540  0.33374  1.0000
  H   H59       1.0  0.85998  0.94124  0.34002  1.0000
  H   H60       1.0  0.96205  0.94747  0.36943  1.0000
  H   H61       1.0  0.90597  0.21230  0.38303  1.0000
  H   H62       1.0  0.78798  0.09380  0.38288  1.0000
  H   H63       1.0  0.89850  0.03284  0.64616  1.0000
  H   H64       1.0  0.96231  0.11882  0.65015  1.0000
  H   H65       1.0  0.85853  0.12744  0.67205  1.0000
  H   H66       1.0  0.28939  0.11775  0.40766  1.0000
  H   H67       1.0  0.40749  0.11772  0.28927  1.0000
  H   H68       1.0  0.42417  0.83384  0.35547  1.0000
  H   H69       1.0  0.35979  0.83990  0.44089  1.0000
  H   H70       1.0  0.46178  0.86945  0.44785  1.0000
  H   H71       1.0  0.40611  0.28784  0.11703  1.0000
  H   H72       1.0  0.28784  0.40606  0.11706  1.0000
  H   H73       1.0  0.39836  0.46713  0.85380  1.0000
  H   H74       1.0  0.46238  0.38130  0.84990  1.0000
  H   H75       1.0  0.35863  0.37243  0.82794  1.0000
  H   H76       1.0  0.61784  0.21042  0.09216  1.0000
  H   H77       1.0  0.61764  0.09269  0.21092  1.0000
  H   H78       1.0  0.33379  0.07601  0.14457  1.0000
  H   H79       1.0  0.33996  0.14013  0.05895  1.0000
  H   H80       1.0  0.36944  0.03810  0.05232  1.0000
  H   H81       1.0  0.09437  0.21262  0.61681  1.0000
  H   H82       1.0  0.21169  0.09346  0.61728  1.0000
  H   H83       1.0  0.10117  0.03278  0.35393  1.0000
  H   H84       1.0  0.03785  0.11911  0.34975  1.0000
  H   H85       1.0  0.14170  0.12712  0.32797  1.0000
  H   H86       1.0  0.59228  0.88222  0.28945  1.0000
  H   H87       1.0  0.71079  0.88230  0.40744  1.0000
  H   H88       1.0  0.64454  0.16617  0.42412  1.0000
  H   H89       1.0  0.55906  0.16008  0.35981  1.0000
  H   H90       1.0  0.55220  0.13055  0.46181  1.0000
  H   H91       1.0  0.11778  0.28946  0.40773  1.0000
  H   H92       1.0  0.11770  0.40743  0.28920  1.0000
  H   H93       1.0  0.83383  0.42411  0.35545  1.0000
  H   H94       1.0  0.83992  0.35982  0.44095  1.0000
  H   H95       1.0  0.86945  0.46182  0.44779  1.0000
  H   H96       1.0  0.09395  0.61700  0.21222  1.0000
  H   H97       1.0  0.21210  0.61709  0.09388  1.0000
  H   H98       1.0  0.10158  0.35382  0.03286  1.0000
  H   H99       1.0  0.03765  0.34988  0.11875  1.0000
  H   H100      1.0  0.14141  0.32794  0.12752  1.0000
  H   H101      1.0  0.11682  0.59434  0.71260  1.0000
  H   H102      1.0  0.11727  0.71172  0.59349  1.0000
  H   H103      1.0  0.85392  0.60120  0.53279  1.0000
  H   H104      1.0  0.84976  0.53784  0.61909  1.0000
  H   H105      1.0  0.82796  0.64169  0.62715  1.0000
  H   H106      1.0  0.71069  0.59241  0.11772  1.0000
  H   H107      1.0  0.59243  0.71065  0.11776  1.0000
  H   H108      1.0  0.57575  0.64452  0.83386  1.0000
  H   H109      1.0  0.64025  0.55918  0.83987  1.0000
  H   H110      1.0  0.53828  0.55208  0.86946  1.0000
  H   H111      1.0  0.59395  0.11700  0.71222  1.0000
  H   H112      1.0  0.71210  0.11709  0.59388  1.0000
  H   H113      1.0  0.60158  0.85382  0.53286  1.0000
  H   H114      1.0  0.53765  0.84988  0.61875  1.0000
  H   H115      1.0  0.64141  0.82794  0.62752  1.0000
  H   H116      1.0  0.40597  0.71230  0.88303  1.0000
  H   H117      1.0  0.28798  0.59380  0.88288  1.0000
  H   H118      1.0  0.39850  0.53284  0.14616  1.0000
  H   H119      1.0  0.46231  0.61882  0.15015  1.0000
  H   H120      1.0  0.35853  0.62744  0.17205  1.0000
  N   N1        1.0  0.17118  0.50400  0.92334  1.0000
  N   N2        1.0  0.07664  0.50393  0.82884  1.0000
  N   N3        1.0  0.00419  0.32842  0.57706  1.0000
  N   N4        1.0  0.00403  0.42315  0.67137  1.0000
  N   N5        1.0  0.92305  0.50414  0.17147  1.0000
  N   N6        1.0  0.82853  0.50408  0.07696  1.0000
  N   N7        1.0  0.92272  0.49571  0.82820  1.0000
  N   N8        1.0  0.82886  0.49608  0.92338  1.0000
  N   N9        1.0  0.57633  0.32915  0.00385  1.0000
  N   N10       1.0  0.67149  0.42303  0.00409  1.0000
  N   N11       1.0  0.17141  0.92312  0.50411  1.0000
  N   N12       1.0  0.07702  0.82846  0.50411  1.0000
  N   N13       1.0  0.00393  0.57650  0.32898  1.0000
  N   N14       1.0  0.00401  0.67132  0.42320  1.0000
  N   N15       1.0  0.50397  0.92341  0.17111  1.0000
  N   N16       1.0  0.50397  0.82877  0.07671  1.0000
  N   N17       1.0  0.49589  0.82860  0.92312  1.0000
  N   N18       1.0  0.49589  0.92298  0.82846  1.0000
  N   N19       1.0  0.50393  0.07650  0.82898  1.0000
  N   N20       1.0  0.50401  0.17132  0.92320  1.0000
  N   N21       1.0  0.32888  0.00397  0.57660  1.0000
  N   N22       1.0  0.42330  0.00396  0.67122  1.0000
  N   N23       1.0  0.82886  0.92338  0.49602  1.0000
  N   N24       1.0  0.92271  0.82820  0.49577  1.0000
  N   N25       1.0  0.92330  0.17123  0.50402  1.0000
  N   N26       1.0  0.82889  0.07660  0.50391  1.0000
  N   N27       1.0  0.32855  0.99587  0.42307  1.0000
  N   N28       1.0  0.42303  0.99591  0.32851  1.0000
  N   N29       1.0  0.42340  0.32888  0.99603  1.0000
  N   N30       1.0  0.32877  0.42329  0.99604  1.0000
  N   N31       1.0  0.49594  0.17131  0.07679  1.0000
  N   N32       1.0  0.49585  0.07712  0.17163  1.0000
  N   N33       1.0  0.07697  0.17149  0.49585  1.0000
  N   N34       1.0  0.17085  0.07633  0.49621  1.0000
  N   N35       1.0  0.57689  0.00411  0.32859  1.0000
  N   N36       1.0  0.67153  0.00411  0.42298  1.0000
  N   N37       1.0  0.99589  0.32860  0.42312  1.0000
  N   N38       1.0  0.99589  0.42298  0.32846  1.0000
  N   N39       1.0  0.07664  0.49601  0.17116  1.0000
  N   N40       1.0  0.17118  0.49606  0.07666  1.0000
  N   N41       1.0  0.99586  0.57695  0.67147  1.0000
  N   N42       1.0  0.99620  0.67087  0.57635  1.0000
  N   N43       1.0  0.67151  0.57699  0.99584  1.0000
  N   N44       1.0  0.57691  0.67143  0.99594  1.0000
  N   N45       1.0  0.57664  0.99601  0.67116  1.0000
  N   N46       1.0  0.67118  0.99606  0.57666  1.0000
  N   N47       1.0  0.42330  0.67123  0.00402  1.0000
  N   N48       1.0  0.32889  0.57660  0.00391  1.0000
  Zn  Zn1       1.0  0.00000  0.50000  0.75000  1.0000
  Zn  Zn2       1.0  0.75000  0.50000  0.00000  1.0000
  Zn  Zn3       1.0  0.00000  0.75000  0.50000  1.0000
  Zn  Zn4       1.0  0.50000  0.75000  0.00000  1.0000
  Zn  Zn5       1.0  0.50000  0.00000  0.75000  1.0000
  Zn  Zn6       1.0  0.75000  0.00000  0.50000  1.0000
  Zn  Zn7       1.0  0.50000  0.00000  0.25000  1.0000
  Zn  Zn8       1.0  0.50000  0.25000  0.00000  1.0000
  Zn  Zn9       1.0  0.25000  0.00000  0.50000  1.0000
  Zn  Zn10      1.0  0.00000  0.50000  0.25000  1.0000
  Zn  Zn11      1.0  0.00000  0.25000  0.50000  1.0000
  Zn  Zn12      1.0  0.25000  0.50000  0.00000  1.0000
