data_1_MOXJEP
_chemical_name_common		'BIF1Li '
_chemical_formula_structural	'LiB(Im)2'
_chemical_formula_sum		'Ar1 B2'
_citation_special_details	'original source structure doi: 10.1002/anie.200804169'
;
File: MOXJEP.cif.
;
_cell_length_a			8.60304
_cell_length_b			8.60304
_cell_length_c			4.40193
_cell_angle_alpha		90.00000
_cell_angle_beta		90.00000
_cell_angle_gamma		90.00000
_cell_volume			325.79685
_cell_formula_units_Z		32
_symmetry_space_group_name_H-M	'P 1'
_symmetry_Int_Tables_number	1
loop_
_symmetry_equiv_pos_site_id
_symmetry_equiv_pos_as_xyz
1 x,y,z
loop_
_atom_site_label
_atom_site_type_symbol
_atom_site_symmetry_multiplicity
_atom_site_fract_x
_atom_site_fract_y
_atom_site_fract_z
_atom_site_occupancy
Ar1 Ar 1 0.40150 0.35540 0.58270 1.0000
Ar2 Ar 1 0.09850 0.14460 0.08270 1.0000
Ar3 Ar 1 0.64460 0.90150 0.83270 1.0000
Ar4 Ar 1 0.85540 0.59850 0.33270 1.0000
Ar5 Ar 1 0.40150 0.64460 0.08270 1.0000
Ar6 Ar 1 0.09850 0.85540 0.58270 1.0000
Ar7 Ar 1 0.64460 0.09850 0.33270 1.0000
Ar8 Ar 1 0.85540 0.40150 0.83270 1.0000
Ar9 Ar 1 0.90150 0.85540 0.08270 1.0000
Ar10 Ar 1 0.59850 0.64460 0.58270 1.0000
Ar11 Ar 1 0.14460 0.40150 0.33270 1.0000
Ar12 Ar 1 0.35540 0.09850 0.83270 1.0000
Ar13 Ar 1 0.90150 0.14460 0.58270 1.0000
Ar14 Ar 1 0.59850 0.35540 0.08270 1.0000
Ar15 Ar 1 0.14460 0.59850 0.83270 1.0000
Ar16 Ar 1 0.35540 0.90150 0.33270 1.0000
Ar17 Ar 1 0.40220 0.14888 0.29870 1.0000
Ar18 Ar 1 0.09780 0.35112 0.79870 1.0000
Ar19 Ar 1 0.85112 0.90220 0.54870 1.0000
Ar20 Ar 1 0.64888 0.59780 0.04870 1.0000
Ar21 Ar 1 0.40220 0.85112 0.79870 1.0000
Ar22 Ar 1 0.09780 0.64888 0.29870 1.0000
Ar23 Ar 1 0.85112 0.09780 0.04870 1.0000
Ar24 Ar 1 0.64888 0.40220 0.54870 1.0000
Ar25 Ar 1 0.90220 0.64888 0.79870 1.0000
Ar26 Ar 1 0.59780 0.85112 0.29870 1.0000
Ar27 Ar 1 0.35112 0.40220 0.04870 1.0000
Ar28 Ar 1 0.14888 0.09780 0.54870 1.0000
Ar29 Ar 1 0.90220 0.35112 0.29870 1.0000
Ar30 Ar 1 0.59780 0.14888 0.79870 1.0000
Ar31 Ar 1 0.35112 0.59780 0.54870 1.0000
Ar32 Ar 1 0.14888 0.90220 0.04870 1.0000
B1 B 1 0.38119 0.23954 0.43692 1.0000
B2 B 1 0.11880 0.26046 0.93692 1.0000
B3 B 1 0.76047 0.88119 0.68692 1.0000
B4 B 1 0.73953 0.61880 0.18692 1.0000
B5 B 1 0.38119 0.76047 0.93692 1.0000
B6 B 1 0.11880 0.73953 0.43692 1.0000
B7 B 1 0.76047 0.11880 0.18692 1.0000
B8 B 1 0.73953 0.38119 0.68692 1.0000
B9 B 1 0.88119 0.73953 0.93692 1.0000
B10 B 1 0.61880 0.76047 0.43692 1.0000
B11 B 1 0.26046 0.38119 0.18692 1.0000
B12 B 1 0.23954 0.11880 0.68692 1.0000
B13 B 1 0.88119 0.26046 0.43692 1.0000
B14 B 1 0.61880 0.23954 0.93692 1.0000
B15 B 1 0.26046 0.61880 0.68692 1.0000
B16 B 1 0.23954 0.88119 0.18692 1.0000
B17 B 1 0.51739 0.14217 0.26781 1.0000
B18 B 1 0.98260 0.35783 0.76781 1.0000
B19 B 1 0.85783 0.01739 0.51781 1.0000
B20 B 1 0.64217 0.48261 0.01780 1.0000
B21 B 1 0.51739 0.85783 0.76781 1.0000
B22 B 1 0.98260 0.64217 0.26781 1.0000
B23 B 1 0.85783 0.98260 0.01780 1.0000
B24 B 1 0.64217 0.51739 0.51781 1.0000
B25 B 1 0.01739 0.64217 0.76781 1.0000
B26 B 1 0.48261 0.85783 0.26781 1.0000
B27 B 1 0.35783 0.51739 0.01780 1.0000
B28 B 1 0.14217 0.98260 0.51781 1.0000
B29 B 1 0.01739 0.35783 0.26781 1.0000
B30 B 1 0.48261 0.14217 0.76781 1.0000
B31 B 1 0.35783 0.48261 0.51781 1.0000
B32 B 1 0.14217 0.01739 0.01780 1.0000
B33 B 1 0.35680 0.14513 0.08970 1.0000
B34 B 1 0.14320 0.35488 0.58970 1.0000
B35 B 1 0.85487 0.85680 0.33970 1.0000
B36 B 1 0.64512 0.64320 0.83970 1.0000
B37 B 1 0.35680 0.85487 0.58970 1.0000
B38 B 1 0.14320 0.64512 0.08970 1.0000
B39 B 1 0.85487 0.14320 0.83970 1.0000
B40 B 1 0.64512 0.35680 0.33970 1.0000
B41 B 1 0.85680 0.64512 0.58970 1.0000
B42 B 1 0.64320 0.85487 0.08970 1.0000
B43 B 1 0.35488 0.35680 0.83970 1.0000
B44 B 1 0.14513 0.14320 0.33970 1.0000
B45 B 1 0.85680 0.35488 0.08970 1.0000
B46 B 1 0.64320 0.14513 0.58970 1.0000
B47 B 1 0.35488 0.64320 0.33970 1.0000
B48 B 1 0.14513 0.85680 0.83970 1.0000
B49 B 1 0.37880 0.03955 0.36129 1.0000
B50 B 1 0.12120 0.46045 0.86129 1.0000
B51 B 1 0.96045 0.87881 0.61129 1.0000
B52 B 1 0.53955 0.62119 0.11129 1.0000
B53 B 1 0.37880 0.96045 0.86129 1.0000
B54 B 1 0.12120 0.53955 0.36129 1.0000
B55 B 1 0.96045 0.12120 0.11129 1.0000
B56 B 1 0.53955 0.37880 0.61129 1.0000
B57 B 1 0.87881 0.53955 0.86129 1.0000
B58 B 1 0.62119 0.96045 0.36129 1.0000
B59 B 1 0.46045 0.37880 0.11129 1.0000
B60 B 1 0.03955 0.12120 0.61129 1.0000
B61 B 1 0.87881 0.46045 0.36129 1.0000
B62 B 1 0.62119 0.03955 0.86129 1.0000
B63 B 1 0.46045 0.62119 0.61129 1.0000
B64 B 1 0.03955 0.87881 0.11129 1.0000
#End of data_1_MOXJEP

data_2_MUCLIG
_chemical_name_common		'BIF2Cu'
_chemical_formula_structural	'CuB(mIm)4'
_chemical_formula_sum		'Ar1 B2'
_citation_special_details	'original source structure doi: 10.1002/anie.200804169'
;
File: MUCLIG.cif.
;
_cell_length_a			2.91873
_cell_length_b			2.91873
_cell_length_c			6.25062
_cell_angle_alpha		90.00000
_cell_angle_beta		90.00000
_cell_angle_gamma		90.00000
_cell_volume			53.24898
_cell_formula_units_Z		4
_symmetry_space_group_name_H-M	'P 1'
_symmetry_Int_Tables_number	1
loop_
_symmetry_equiv_pos_site_id
_symmetry_equiv_pos_as_xyz
1 x,y,z
loop_
_atom_site_label
_atom_site_type_symbol
_atom_site_symmetry_multiplicity
_atom_site_fract_x
_atom_site_fract_y
_atom_site_fract_z
_atom_site_occupancy
Ar1 Ar 1 0.50000 0.00000 0.25000 1.0000
Ar2 Ar 1 0.00000 0.50000 0.75000 1.0000
Ar3 Ar 1 0.00000 0.00000 0.00000 1.0000
Ar4 Ar 1 0.50000 0.50000 0.50000 1.0000
B1 B 1 0.23600 0.07648 0.11034 1.0000
B2 B 1 0.76399 0.92352 0.11034 1.0000
B3 B 1 0.07648 0.76399 0.88966 1.0000
B4 B 1 0.92352 0.23600 0.88966 1.0000
B5 B 1 0.73601 0.57648 0.61034 1.0000
B6 B 1 0.26400 0.42352 0.61034 1.0000
B7 B 1 0.57648 0.26400 0.38966 1.0000
B8 B 1 0.42352 0.73601 0.38966 1.0000
#End of data_2_MUCLIG

data_3_MUCLOM
_chemical_name_common		'BIF3Li'
_chemical_formula_structural	'LiB(mIm)2'
_chemical_formula_sum		'Ar1 B2'
_citation_special_details	'original source structure doi: 10.1002/anie.200804169'
;
File: MUCLOM.cif.
;
_cell_length_a			6.08962
_cell_length_b			6.08962
_cell_length_c			6.08962
_cell_angle_alpha		90.00000
_cell_angle_beta		90.00000
_cell_angle_gamma		90.00000
_cell_volume			225.82410
_cell_formula_units_Z		12
_symmetry_space_group_name_H-M	'P 1'
_symmetry_Int_Tables_number	1
loop_
_symmetry_equiv_pos_site_id
_symmetry_equiv_pos_as_xyz
1 x,y,z
loop_
_atom_site_label
_atom_site_type_symbol
_atom_site_symmetry_multiplicity
_atom_site_fract_x
_atom_site_fract_y
_atom_site_fract_z
_atom_site_occupancy
Ar1 Ar 1 0.50000 0.25000 0.00000 1.0000
Ar2 Ar 1 0.50000 0.75000 0.00000 1.0000
Ar3 Ar 1 0.00000 0.50000 0.25000 1.0000
Ar4 Ar 1 0.00000 0.50000 0.75000 1.0000
Ar5 Ar 1 0.25000 0.00000 0.50000 1.0000
Ar6 Ar 1 0.75000 0.00000 0.50000 1.0000
Ar7 Ar 1 0.25000 0.50000 0.00000 1.0000
Ar8 Ar 1 0.75000 0.50000 0.00000 1.0000
Ar9 Ar 1 0.00000 0.25000 0.50000 1.0000
Ar10 Ar 1 0.00000 0.75000 0.50000 1.0000
Ar11 Ar 1 0.50000 0.00000 0.25000 1.0000
Ar12 Ar 1 0.50000 0.00000 0.75000 1.0000
B1 B 1 0.35473 0.37735 0.03090 1.0000
B2 B 1 0.64527 0.62265 0.03090 1.0000
B3 B 1 0.64527 0.37735 0.96910 1.0000
B4 B 1 0.35473 0.62265 0.96910 1.0000
B5 B 1 0.03090 0.35473 0.37735 1.0000
B6 B 1 0.03090 0.64527 0.62265 1.0000
B7 B 1 0.96910 0.64527 0.37735 1.0000
B8 B 1 0.96910 0.35473 0.62265 1.0000
B9 B 1 0.37735 0.03090 0.35473 1.0000
B10 B 1 0.62265 0.03090 0.64527 1.0000
B11 B 1 0.37735 0.96910 0.64527 1.0000
B12 B 1 0.62265 0.96910 0.35473 1.0000
B13 B 1 0.87735 0.85473 0.53090 1.0000
B14 B 1 0.12265 0.14527 0.53090 1.0000
B15 B 1 0.87735 0.14527 0.46910 1.0000
B16 B 1 0.12265 0.85473 0.46910 1.0000
B17 B 1 0.85473 0.53090 0.87735 1.0000
B18 B 1 0.14527 0.53090 0.12265 1.0000
B19 B 1 0.14527 0.46910 0.87735 1.0000
B20 B 1 0.85473 0.46910 0.12265 1.0000
B21 B 1 0.53090 0.87735 0.85473 1.0000
B22 B 1 0.53090 0.12265 0.14527 1.0000
B23 B 1 0.46910 0.87735 0.14527 1.0000
B24 B 1 0.46910 0.12265 0.85473 1.0000
#End of data_3_MUCLOM

data_4_MOXJIT
_chemical_name_common		'BIF1Cu'
_chemical_formula_structural	'CuB(Im)2'
_chemical_formula_sum		'Ar1 B2'
_citation_special_details	'original source structure doi: 10.1002/anie.200804169'
;
File: MOXJIT.cif.
;
_cell_length_a			8.55926
_cell_length_b			8.55926
_cell_length_c			4.39395
_cell_angle_alpha		90.00000
_cell_angle_beta		90.00000
_cell_angle_gamma		90.00000
_cell_volume			321.90503
_cell_formula_units_Z		32
_symmetry_space_group_name_H-M	'P 1'
_symmetry_Int_Tables_number	1
loop_
_symmetry_equiv_pos_site_id
_symmetry_equiv_pos_as_xyz
1 x,y,z
loop_
_atom_site_label
_atom_site_type_symbol
_atom_site_symmetry_multiplicity
_atom_site_fract_x
_atom_site_fract_y
_atom_site_fract_z
_atom_site_occupancy
Ar1 Ar 1 0.60060 0.35448 0.96230 1.0000
Ar2 Ar 1 0.89940 0.14552 0.46230 1.0000
Ar3 Ar 1 0.64552 0.10060 0.21230 1.0000
Ar4 Ar 1 0.85448 0.39940 0.71230 1.0000
Ar5 Ar 1 0.60060 0.64552 0.46230 1.0000
Ar6 Ar 1 0.89940 0.85448 0.96230 1.0000
Ar7 Ar 1 0.64552 0.89940 0.71230 1.0000
Ar8 Ar 1 0.85448 0.60060 0.21230 1.0000
Ar9 Ar 1 0.10060 0.85448 0.46230 1.0000
Ar10 Ar 1 0.39940 0.64552 0.96230 1.0000
Ar11 Ar 1 0.14552 0.60060 0.71230 1.0000
Ar12 Ar 1 0.35448 0.89940 0.21230 1.0000
Ar13 Ar 1 0.10060 0.14552 0.96230 1.0000
Ar14 Ar 1 0.39940 0.35448 0.46230 1.0000
Ar15 Ar 1 0.14552 0.39940 0.21230 1.0000
Ar16 Ar 1 0.35448 0.10060 0.71230 1.0000
Ar17 Ar 1 0.64786 0.59938 0.93470 1.0000
Ar18 Ar 1 0.85214 0.90062 0.43470 1.0000
Ar19 Ar 1 0.40062 0.14786 0.18470 1.0000
Ar20 Ar 1 0.09938 0.35214 0.68470 1.0000
Ar21 Ar 1 0.64786 0.40062 0.43470 1.0000
Ar22 Ar 1 0.85214 0.09938 0.93470 1.0000
Ar23 Ar 1 0.40062 0.85214 0.68470 1.0000
Ar24 Ar 1 0.09938 0.64786 0.18470 1.0000
Ar25 Ar 1 0.14786 0.09938 0.43470 1.0000
Ar26 Ar 1 0.35214 0.40062 0.93470 1.0000
Ar27 Ar 1 0.90062 0.64786 0.68470 1.0000
Ar28 Ar 1 0.59938 0.85214 0.18470 1.0000
Ar29 Ar 1 0.14786 0.90062 0.93470 1.0000
Ar30 Ar 1 0.35214 0.59938 0.43470 1.0000
Ar31 Ar 1 0.90062 0.35214 0.18470 1.0000
Ar32 Ar 1 0.59938 0.14786 0.68470 1.0000
B1 B 1 0.73790 0.62175 0.07455 1.0000
B2 B 1 0.76210 0.87825 0.57455 1.0000
B3 B 1 0.37825 0.23790 0.32455 1.0000
B4 B 1 0.12175 0.26210 0.82455 1.0000
B5 B 1 0.73790 0.37825 0.57455 1.0000
B6 B 1 0.76210 0.12175 0.07455 1.0000
B7 B 1 0.37825 0.76210 0.82455 1.0000
B8 B 1 0.12175 0.73790 0.32455 1.0000
B9 B 1 0.23790 0.12175 0.57455 1.0000
B10 B 1 0.26210 0.37825 0.07455 1.0000
B11 B 1 0.87825 0.73790 0.82455 1.0000
B12 B 1 0.62175 0.76210 0.32455 1.0000
B13 B 1 0.23790 0.87825 0.07455 1.0000
B14 B 1 0.26210 0.62175 0.57455 1.0000
B15 B 1 0.87825 0.26210 0.32455 1.0000
B16 B 1 0.62175 0.23790 0.82455 1.0000
B17 B 1 0.64348 0.48332 0.90401 1.0000
B18 B 1 0.85652 0.01668 0.40402 1.0000
B19 B 1 0.51668 0.14349 0.15402 1.0000
B20 B 1 0.98333 0.35652 0.65402 1.0000
B21 B 1 0.64348 0.51668 0.40402 1.0000
B22 B 1 0.85652 0.98333 0.90401 1.0000
B23 B 1 0.51668 0.85652 0.65402 1.0000
B24 B 1 0.98333 0.64348 0.15402 1.0000
B25 B 1 0.14349 0.98333 0.40402 1.0000
B26 B 1 0.35652 0.51668 0.90401 1.0000
B27 B 1 0.01668 0.64348 0.65402 1.0000
B28 B 1 0.48332 0.85652 0.15402 1.0000
B29 B 1 0.14349 0.01668 0.90401 1.0000
B30 B 1 0.35652 0.48332 0.40402 1.0000
B31 B 1 0.01668 0.35652 0.15402 1.0000
B32 B 1 0.48332 0.14349 0.65402 1.0000
B33 B 1 0.64511 0.64500 0.72525 1.0000
B34 B 1 0.85490 0.85500 0.22525 1.0000
B35 B 1 0.35500 0.14511 0.97525 1.0000
B36 B 1 0.14500 0.35489 0.47525 1.0000
B37 B 1 0.64511 0.35500 0.22525 1.0000
B38 B 1 0.85490 0.14500 0.72525 1.0000
B39 B 1 0.35500 0.85490 0.47525 1.0000
B40 B 1 0.14500 0.64511 0.97525 1.0000
B41 B 1 0.14511 0.14500 0.22525 1.0000
B42 B 1 0.35489 0.35500 0.72525 1.0000
B43 B 1 0.85500 0.64511 0.47525 1.0000
B44 B 1 0.64500 0.85490 0.97525 1.0000
B45 B 1 0.14511 0.85500 0.72525 1.0000
B46 B 1 0.35489 0.64500 0.22525 1.0000
B47 B 1 0.85500 0.35489 0.97525 1.0000
B48 B 1 0.64500 0.14511 0.47525 1.0000
B49 B 1 0.53683 0.62114 0.99567 1.0000
B50 B 1 0.96317 0.87886 0.49567 1.0000
B51 B 1 0.37886 0.03683 0.24567 1.0000
B52 B 1 0.12114 0.46317 0.74567 1.0000
B53 B 1 0.53683 0.37886 0.49567 1.0000
B54 B 1 0.96317 0.12114 0.99567 1.0000
B55 B 1 0.37886 0.96317 0.74567 1.0000
B56 B 1 0.12114 0.53683 0.24567 1.0000
B57 B 1 0.03683 0.12114 0.49567 1.0000
B58 B 1 0.46317 0.37886 0.99567 1.0000
B59 B 1 0.87886 0.53683 0.74567 1.0000
B60 B 1 0.62114 0.96317 0.24567 1.0000
B61 B 1 0.03683 0.87886 0.99567 1.0000
B62 B 1 0.46317 0.62114 0.49567 1.0000
B63 B 1 0.87886 0.46317 0.24567 1.0000
B64 B 1 0.62114 0.03683 0.74567 1.0000
#End of data_4_MOXJIT

data_5_MOXJOZ
_chemical_name_common		'BIF3Cu'
_chemical_formula_structural	'CuB(mIm)2'
_chemical_formula_sum		'Ar1 B2'
_citation_special_details	'original source structure doi: 10.1002/anie.200804169'
;
File: MOXJOZ.cif.
;
_cell_length_a			6.07634
_cell_length_b			6.07634
_cell_length_c			6.07634
_cell_angle_alpha		90.00000
_cell_angle_beta		90.00000
_cell_angle_gamma		90.00000
_cell_volume			224.35011
_cell_formula_units_Z		12
_symmetry_space_group_name_H-M	'P 1'
_symmetry_Int_Tables_number	1
loop_
_symmetry_equiv_pos_site_id
_symmetry_equiv_pos_as_xyz
1 x,y,z
loop_
_atom_site_label
_atom_site_type_symbol
_atom_site_symmetry_multiplicity
_atom_site_fract_x
_atom_site_fract_y
_atom_site_fract_z
_atom_site_occupancy
Ar1 Ar 1 0.50000 0.00000 0.25000 1.0000
Ar2 Ar 1 0.50000 0.00000 0.75000 1.0000
Ar3 Ar 1 0.25000 0.50000 0.00000 1.0000
Ar4 Ar 1 0.75000 0.50000 0.00000 1.0000
Ar5 Ar 1 0.00000 0.25000 0.50000 1.0000
Ar6 Ar 1 0.00000 0.75000 0.50000 1.0000
Ar7 Ar 1 0.25000 0.00000 0.50000 1.0000
Ar8 Ar 1 0.75000 0.00000 0.50000 1.0000
Ar9 Ar 1 0.50000 0.25000 0.00000 1.0000
Ar10 Ar 1 0.50000 0.75000 0.00000 1.0000
Ar11 Ar 1 0.00000 0.50000 0.25000 1.0000
Ar12 Ar 1 0.00000 0.50000 0.75000 1.0000
B1 B 1 0.35500 0.03070 0.37705 1.0000
B2 B 1 0.64500 0.96930 0.37705 1.0000
B3 B 1 0.64500 0.03070 0.62295 1.0000
B4 B 1 0.35500 0.96930 0.62295 1.0000
B5 B 1 0.37705 0.35500 0.03070 1.0000
B6 B 1 0.37705 0.64500 0.96930 1.0000
B7 B 1 0.62295 0.64500 0.03070 1.0000
B8 B 1 0.62295 0.35500 0.96930 1.0000
B9 B 1 0.03070 0.37705 0.35500 1.0000
B10 B 1 0.96930 0.37705 0.64500 1.0000
B11 B 1 0.03070 0.62295 0.64500 1.0000
B12 B 1 0.96930 0.62295 0.35500 1.0000
B13 B 1 0.53070 0.85500 0.87705 1.0000
B14 B 1 0.46930 0.14500 0.87705 1.0000
B15 B 1 0.53070 0.14500 0.12295 1.0000
B16 B 1 0.46930 0.85500 0.12295 1.0000
B17 B 1 0.85500 0.87705 0.53070 1.0000
B18 B 1 0.14500 0.87705 0.46930 1.0000
B19 B 1 0.14500 0.12295 0.53070 1.0000
B20 B 1 0.85500 0.12295 0.46930 1.0000
B21 B 1 0.87705 0.53070 0.85500 1.0000
B22 B 1 0.87705 0.46930 0.14500 1.0000
B23 B 1 0.12295 0.53070 0.14500 1.0000
B24 B 1 0.12295 0.46930 0.85500 1.0000
#End of data_5_MOXJOZ

data_6_MOXKUG
_chemical_name_common		'BIF2Li'
_chemical_formula_structural	'LiB(mIm)4'
_chemical_formula_sum		'Ar1 B2'
_citation_special_details	'original source structure doi: 10.1002/anie.200804169'
;
File: MOXKUG.cif.
;
_cell_length_a			2.88869
_cell_length_b			2.88869
_cell_length_c			6.25935
_cell_angle_alpha		90.00000
_cell_angle_beta		90.00000
_cell_angle_gamma		90.00000
_cell_volume			52.23127
_cell_formula_units_Z		4
_symmetry_space_group_name_H-M	'P 1'
_symmetry_Int_Tables_number	1
loop_
_symmetry_equiv_pos_site_id
_symmetry_equiv_pos_as_xyz
1 x,y,z
loop_
_atom_site_label
_atom_site_type_symbol
_atom_site_symmetry_multiplicity
_atom_site_fract_x
_atom_site_fract_y
_atom_site_fract_z
_atom_site_occupancy
Ar1 Ar 1 0.00000 0.50000 0.25000 1.0000
Ar2 Ar 1 0.50000 0.00000 0.75000 1.0000
Ar3 Ar 1 0.00000 0.00000 0.00000 1.0000
Ar4 Ar 1 0.50000 0.50000 0.50000 1.0000
B1 B 1 0.08195 0.26430 0.13927 1.0000
B2 B 1 0.91805 0.73570 0.13927 1.0000
B3 B 1 0.26430 0.91805 0.86073 1.0000
B4 B 1 0.73570 0.08195 0.86073 1.0000
B5 B 1 0.58195 0.76430 0.63927 1.0000
B6 B 1 0.41805 0.23570 0.63927 1.0000
B7 B 1 0.76430 0.41805 0.36073 1.0000
B8 B 1 0.23570 0.58195 0.36073 1.0000
#End of data_6_MOXKUG

