data_1_LHCC201301
_chemical_name_common		'Zn(CN)2-I'
_chemical_formula_structural	'Zn(CN)2'
_chemical_formula_sum		'Ar1 B2'
_citation_special_details	'original source structure doi: 10.1021/ja4012707'
;
File: LHCC201301.cif.
;
_cell_length_a			2.30940
_cell_length_b			2.30940
_cell_length_c			2.30940
_cell_angle_alpha		90.00000
_cell_angle_beta		90.00000
_cell_angle_gamma		90.00000
_cell_volume			12.31681
_cell_formula_units_Z		2
_symmetry_space_group_name_H-M	'P 1'
_symmetry_Int_Tables_number	1
loop_
_symmetry_equiv_pos_site_id
_symmetry_equiv_pos_as_xyz
1 x,y,z
loop_
_atom_site_label
_atom_site_type_symbol
_atom_site_symmetry_multiplicity
_atom_site_fract_x
_atom_site_fract_y
_atom_site_fract_z
_atom_site_occupancy
Ar1 Ar 1 0.25000 0.25000 0.25000 1.0000
Ar2 Ar 1 0.75000 0.75000 0.75000 1.0000
B1 B 1 0.00000 0.50000 0.00000 1.0000
B2 B 1 0.50000 0.00000 0.00000 1.0000
B3 B 1 0.50000 0.50000 0.50000 1.0000
B4 B 1 0.00000 0.00000 0.50000 1.0000
#End of data_1_LHCC201301

data_2_LHCC201304
_chemical_name_common		'Zn(CN)2-lon'
_chemical_formula_structural	'Zn(CN)2'
_chemical_formula_sum		'Ar1 B2'
_citation_special_details	'original source structure doi: 10.1021/ja4012707'
;
File: LHCC201304.cif.
;
_cell_length_a			3.73653
_cell_length_b			3.73653
_cell_length_c			5.98910
_cell_angle_alpha		90.00000
_cell_angle_beta		90.00000
_cell_angle_gamma		120.00000
_cell_volume			72.41523
_cell_formula_units_Z		4
_symmetry_space_group_name_H-M	'P 1'
_symmetry_Int_Tables_number	1
loop_
_symmetry_equiv_pos_site_id
_symmetry_equiv_pos_as_xyz
1 x,y,z
loop_
_atom_site_label
_atom_site_type_symbol
_atom_site_symmetry_multiplicity
_atom_site_fract_x
_atom_site_fract_y
_atom_site_fract_z
_atom_site_occupancy
Ar1 Ar 1 0.33333 0.66667 0.58303 1.0000
Ar2 Ar 1 0.66667 0.33333 0.08303 1.0000
Ar3 Ar 1 0.66667 0.33333 0.41697 1.0000
Ar4 Ar 1 0.33333 0.66667 0.91697 1.0000
B1 B 1 0.50000 0.00000 0.00000 1.0000
B2 B 1 0.00000 0.50000 0.00000 1.0000
B3 B 1 0.50000 0.50000 0.00000 1.0000
B4 B 1 0.50000 0.00000 0.50000 1.0000
B5 B 1 0.00000 0.50000 0.50000 1.0000
B6 B 1 0.50000 0.50000 0.50000 1.0000
B7 B 1 0.33333 0.66667 0.75000 1.0000
B8 B 1 0.66667 0.33333 0.25000 1.0000
#End of data_2_LHCC201304

data_3_LHCC201303
_chemical_name_common		'Zn(CN)2-dia'
_chemical_formula_structural	'Zn(CN)2'
_chemical_formula_sum		'Ar1 B2'
_citation_special_details	'original source structure doi: 10.1021/ja4012707'
;
File: LHCC201303.cif.
;
_cell_length_a			4.61880
_cell_length_b			4.61880
_cell_length_c			4.61880
_cell_angle_alpha		90.00000
_cell_angle_beta		90.00000
_cell_angle_gamma		90.00000
_cell_volume			98.53453
_cell_formula_units_Z		8
_symmetry_space_group_name_H-M	'P 1'
_symmetry_Int_Tables_number	1
loop_
_symmetry_equiv_pos_site_id
_symmetry_equiv_pos_as_xyz
1 x,y,z
loop_
_atom_site_label
_atom_site_type_symbol
_atom_site_symmetry_multiplicity
_atom_site_fract_x
_atom_site_fract_y
_atom_site_fract_z
_atom_site_occupancy
Ar1 Ar 1 0.12500 0.12500 0.12500 1.0000
Ar2 Ar 1 0.87500 0.87500 0.87500 1.0000
Ar3 Ar 1 0.62500 0.12500 0.62500 1.0000
Ar4 Ar 1 0.37500 0.87500 0.37500 1.0000
Ar5 Ar 1 0.12500 0.62500 0.62500 1.0000
Ar6 Ar 1 0.87500 0.37500 0.37500 1.0000
Ar7 Ar 1 0.62500 0.62500 0.12500 1.0000
Ar8 Ar 1 0.37500 0.37500 0.87500 1.0000
B1 B 1 0.00000 0.00000 0.00000 1.0000
B2 B 1 0.75000 0.25000 0.50000 1.0000
B3 B 1 0.25000 0.75000 0.50000 1.0000
B4 B 1 0.25000 0.50000 0.75000 1.0000
B5 B 1 0.75000 0.50000 0.25000 1.0000
B6 B 1 0.50000 0.75000 0.25000 1.0000
B7 B 1 0.50000 0.25000 0.75000 1.0000
B8 B 1 0.00000 0.50000 0.50000 1.0000
B9 B 1 0.75000 0.75000 0.00000 1.0000
B10 B 1 0.25000 0.25000 0.00000 1.0000
B11 B 1 0.25000 0.00000 0.25000 1.0000
B12 B 1 0.75000 0.00000 0.75000 1.0000
B13 B 1 0.50000 0.00000 0.50000 1.0000
B14 B 1 0.00000 0.75000 0.75000 1.0000
B15 B 1 0.00000 0.25000 0.25000 1.0000
B16 B 1 0.50000 0.50000 0.00000 1.0000
#End of data_3_LHCC201303

data_4_LHCC201302
_chemical_name_common		'Zn(CN)2-II'
_chemical_formula_structural	'Zn(CN)2'
_chemical_formula_sum		'Ar1 B2'
_citation_special_details	'original source structure doi: 10.1021/ja4012707'
;
File: LHCC201302.cif.
;
_cell_length_a			5.16109
_cell_length_b			3.21563
_cell_length_c			3.15740
_cell_angle_alpha		90.00000
_cell_angle_beta		90.00000
_cell_angle_gamma		90.00000
_cell_volume			52.40078
_cell_formula_units_Z		8
_symmetry_space_group_name_H-M	'P 1'
_symmetry_Int_Tables_number	1
loop_
_symmetry_equiv_pos_site_id
_symmetry_equiv_pos_as_xyz
1 x,y,z
loop_
_atom_site_label
_atom_site_type_symbol
_atom_site_symmetry_multiplicity
_atom_site_fract_x
_atom_site_fract_y
_atom_site_fract_z
_atom_site_occupancy
Ar1 Ar 1 0.63224 0.04717 0.79011 1.0000
Ar2 Ar 1 0.36776 0.95283 0.20989 1.0000
Ar3 Ar 1 0.86776 0.95283 0.29011 1.0000
Ar4 Ar 1 0.13224 0.04717 0.70989 1.0000
Ar5 Ar 1 0.36776 0.54717 0.70989 1.0000
Ar6 Ar 1 0.63224 0.45283 0.29011 1.0000
Ar7 Ar 1 0.13224 0.45283 0.20989 1.0000
Ar8 Ar 1 0.86776 0.54717 0.79011 1.0000
B1 B 1 0.74810 0.07030 0.53735 1.0000
B2 B 1 0.25190 0.92970 0.46265 1.0000
B3 B 1 0.75190 0.92970 0.03735 1.0000
B4 B 1 0.24810 0.07030 0.96265 1.0000
B5 B 1 0.25190 0.57030 0.96265 1.0000
B6 B 1 0.74810 0.42970 0.03735 1.0000
B7 B 1 0.24810 0.42970 0.46265 1.0000
B8 B 1 0.75190 0.57030 0.53735 1.0000
B9 B 1 0.49845 0.81000 0.69015 1.0000
B10 B 1 0.50155 0.19000 0.30985 1.0000
B11 B 1 0.00155 0.19000 0.19015 1.0000
B12 B 1 0.99845 0.81000 0.80985 1.0000
B13 B 1 0.50155 0.31000 0.80985 1.0000
B14 B 1 0.49845 0.69000 0.19015 1.0000
B15 B 1 0.99845 0.69000 0.30985 1.0000
B16 B 1 0.00155 0.31000 0.69015 1.0000
#End of data_4_LHCC201302

