data_UiO-66_cdc-H2O
_audit_creation_method         'generated by CrystalMaker X for macOS'
_cell_length_a                  20.800200(0)
_cell_length_b                  20.800200(0)
_cell_length_c                  20.800200(0)
_cell_angle_alpha               90.000000(0)
_cell_angle_beta                90.000000(0)
_cell_angle_gamma               90.000000(0)

_symmetry_space_group_name_H-M     'F m -3'

loop_
_symmetry_equiv_pos_as_xyz
'+x,+y,+z'
'+z,+x,+y'
'+y,+z,+x'
'+x,+y,-z'
'+z,+x,-y'
'+y,+z,-x'
'-x,+y,+z'
'-z,+x,+y'
'-y,+z,+x'
'-x,+y,-z'
'-z,+x,-y'
'-y,+z,-x'
'-x,-y,-z'
'-z,-x,-y'
'-y,-z,-x'
'-x,-y,+z'
'-z,-x,+y'
'-y,-z,+x'
'+x,-y,-z'
'+z,-x,-y'
'+y,-z,-x'
'+x,-y,+z'
'+z,-x,+y'
'+y,-z,+x'
'+x,1/2+y,1/2+z'
'1/2+x,1/2+y,+z'
'1/2+x,+y,1/2+z'
'+z,1/2+x,1/2+y'
'1/2+z,1/2+x,+y'
'1/2+z,+x,1/2+y'
'+y,1/2+z,1/2+x'
'1/2+y,1/2+z,+x'
'1/2+y,+z,1/2+x'
'+x,1/2+y,1/2-z'
'1/2+x,1/2+y,-z'
'1/2+x,+y,1/2-z'
'+z,1/2+x,1/2-y'
'1/2+z,1/2+x,-y'
'1/2+z,+x,1/2-y'
'+y,1/2+z,1/2-x'
'1/2+y,1/2+z,-x'
'1/2+y,+z,1/2-x'
'-x,1/2+y,1/2+z'
'1/2-x,1/2+y,+z'
'1/2-x,+y,1/2+z'
'-z,1/2+x,1/2+y'
'1/2-z,1/2+x,+y'
'1/2-z,+x,1/2+y'
'-y,1/2+z,1/2+x'
'1/2-y,1/2+z,+x'
'1/2-y,+z,1/2+x'
'-x,1/2+y,1/2-z'
'1/2-x,1/2+y,-z'
'1/2-x,+y,1/2-z'
'-z,1/2+x,1/2-y'
'1/2-z,1/2+x,-y'
'1/2-z,+x,1/2-y'
'-y,1/2+z,1/2-x'
'1/2-y,1/2+z,-x'
'1/2-y,+z,1/2-x'
'-x,1/2-y,1/2-z'
'1/2-x,1/2-y,-z'
'1/2-x,-y,1/2-z'
'-z,1/2-x,1/2-y'
'1/2-z,1/2-x,-y'
'1/2-z,-x,1/2-y'
'-y,1/2-z,1/2-x'
'1/2-y,1/2-z,-x'
'1/2-y,-z,1/2-x'
'-x,1/2-y,1/2+z'
'1/2-x,1/2-y,+z'
'1/2-x,-y,1/2+z'
'-z,1/2-x,1/2+y'
'1/2-z,1/2-x,+y'
'1/2-z,-x,1/2+y'
'-y,1/2-z,1/2+x'
'1/2-y,1/2-z,+x'
'1/2-y,-z,1/2+x'
'+x,1/2-y,1/2-z'
'1/2+x,1/2-y,-z'
'1/2+x,-y,1/2-z'
'+z,1/2-x,1/2-y'
'1/2+z,1/2-x,-y'
'1/2+z,-x,1/2-y'
'+y,1/2-z,1/2-x'
'1/2+y,1/2-z,-x'
'1/2+y,-z,1/2-x'
'+x,1/2-y,1/2+z'
'1/2+x,1/2-y,+z'
'1/2+x,-y,1/2+z'
'+z,1/2-x,1/2+y'
'1/2+z,1/2-x,+y'
'1/2+z,-x,1/2+y'
'+y,1/2-z,1/2+x'
'1/2+y,1/2-z,+x'
'1/2+y,-z,1/2+x'

loop_
_atom_site_label
_atom_site_type_symbol
_atom_site_occupancy
_atom_site_fract_x
_atom_site_fract_y
_atom_site_fract_z
_atom_site_U_iso_or_equiv
 C1  C 1.0  0.15000000(800000)  0.00000000(0)  0.14700000(900000)  0.05190
 C2  C 1.0  0.21000000(300000)  0.00000000(0)  0.19000000(300000)  0.05190
 C3  C 1.0  0.21620000(140000)  -0.05940000(110000)  0.23420000(180000)  0.05190
 H1  H 1.0  0.25165900(0)  0.00000000(0)  0.15828900(0)  .  
 H2  H 1.0  0.21008000(0)  -0.10302100(0)  0.20590100(0)  .  
 H3  H 1.0  0.17944600(0)  -0.05745390(0)  0.27143500(0)  .  
 O1  O 1.0  0.08800000(500000)  0.00000000(0)  0.17200000(400000)  0.05190
 O2  O 1.0  0.17500000(400000)  0.00000000(0)  0.08500000(500000)  0.05190
 O8  O 1.0  0.05880000(60000)  0.05880000(60000)  0.05880000(60000)  0.05190
 Zr1  Zr 1.0  0.00000000(0)  0.00000000(0)  0.11680000(30000)  0.01040

