data_ZIF-4
_chemical_formula_sum                               'AB4C6D6'
_cell_length_a			15.50050
_cell_length_b			15.52010
_cell_length_c			18.05820
_cell_angle_alpha		90.00000
_cell_angle_beta		90.00000
_cell_angle_gamma		90.00000
_cell_volume			4344.24871
_cell_formula_units_Z		16
_symmetry_space_group_name_H-M	'P 1'
_symmetry_Int_Tables_number	1
loop_
_symmetry_equiv_pos_site_id
_symmetry_equiv_pos_as_xyz
1 x,y,z
loop_
_atom_site_label
_atom_site_type_symbol
_atom_site_symmetry_multiplicity
_atom_site_fract_x
_atom_site_fract_y
_atom_site_fract_z
_atom_site_occupancy
    Si-1       Si 1   0.9946000000   0.3438000000   0.6877000000  1
    Si-2       Si 1   0.9946000000   0.1562000000   0.1877000000  1
    Si-3       Si 1   0.8002000000   0.1457000000   0.9088000000  1
    Si-4       Si 1   0.8002000000   0.3543000000   0.4088000000  1
    Si-5       Si 1   0.0054000000   0.6562000000   0.3123000000  1
    Si-6       Si 1   0.1998000000   0.6457000000   0.5912000000  1
    Si-7       Si 1   0.0054000000   0.8438000000   0.8123000000  1
    Si-8       Si 1   0.1998000000   0.8543000000   0.0912000000  1
    Si-9       Si 1   0.4946000000   0.1562000000   0.3123000000  1
   Si-10       Si 1   0.3002000000   0.1457000000   0.5912000000  1
   Si-11       Si 1   0.4946000000   0.3438000000   0.8123000000  1
   Si-12       Si 1   0.3002000000   0.3543000000   0.0912000000  1
   Si-13       Si 1   0.5054000000   0.6562000000   0.1877000000  1
   Si-14       Si 1   0.6998000000   0.6457000000   0.9088000000  1
   Si-15       Si 1   0.5054000000   0.8438000000   0.6877000000  1
   Si-16       Si 1   0.6998000000   0.8543000000   0.4088000000  1
     O-1        O 1   0.1392637500   0.0106875000   0.1987475000  1
     O-2        O 1   0.9037537500   0.1933487500   0.3420912500  1
     O-3        O 1   0.0953162500   0.3176604200   0.1277775000  1
     O-4        O 1   0.8428950000   0.1109275000   0.0796475000  1
     O-5        O 1   0.1392637500   0.4893125000   0.6987475000  1
     O-6        O 1   0.9037537500   0.3066512500   0.8420912500  1
     O-7        O 1   0.0953162500   0.1823395800   0.6277775000  1
     O-8        O 1   0.8428950000   0.3890725000   0.5796475000  1
     O-9        O 1   0.8607362500   0.5106875000   0.3012525000  1
    O-10        O 1   0.0962462500   0.6933487500   0.1579087500  1
    O-11        O 1   0.9046837500   0.8176604200   0.3722225000  1
    O-12        O 1   0.1571050000   0.6109275000   0.4203525000  1
    O-13        O 1   0.8607362500   0.9893125000   0.8012525000  1
    O-14        O 1   0.0962462500   0.8066512500   0.6579087500  1
    O-15        O 1   0.9046837500   0.6823395800   0.8722225000  1
    O-16        O 1   0.1571050000   0.8890725000   0.9203525000  1
    O-17        O 1   0.6392637500   0.0106875000   0.3012525000  1
    O-18        O 1   0.4046837500   0.6823395800   0.6277775000  1
    O-19        O 1   0.6571050000   0.8890725000   0.5796475000  1
    O-20        O 1   0.4037537500   0.1933487500   0.1579087500  1
    O-21        O 1   0.5953162500   0.3176604200   0.3722225000  1
    O-22        O 1   0.3428950000   0.1109275000   0.4203525000  1
    O-23        O 1   0.6392637500   0.4893125000   0.8012525000  1
    O-24        O 1   0.4037537500   0.3066512500   0.6579087500  1
    O-25        O 1   0.5953162500   0.1823395800   0.8722225000  1
    O-26        O 1   0.3428950000   0.3890725000   0.9203525000  1
    O-27        O 1   0.3607362500   0.5106875000   0.1987475000  1
    O-28        O 1   0.5962462500   0.6933487500   0.3420912500  1
    O-29        O 1   0.4046837500   0.8176604200   0.1277775000  1
    O-30        O 1   0.6571050000   0.6109275000   0.0796475000  1
    O-31        O 1   0.3607362500   0.9893125000   0.6987475000  1
    O-32        O 1   0.5962462500   0.8066512500   0.8420912500  1
loop_
_topol_link.node_label_1
_topol_link.node_label_2
_topol_link.distance
_topol_link.site_symmetry_symop_1
_topol_link.site_symmetry_translation_1_x
_topol_link.site_symmetry_translation_1_y
_topol_link.site_symmetry_translation_1_z
_topol_link.site_symmetry_symop_2
_topol_link.site_symmetry_translation_2_x
_topol_link.site_symmetry_translation_2_y
_topol_link.site_symmetry_translation_2_z
_topol_link.type
_topol_link.multiplicity
    Si-1      O-8  3.13537    1    0    0    0    1    0    0    0  V  1
    Si-1      O-7  3.14445    1    0    0    0    1    1    0    0  V  1
    Si-1      O-6  3.17623    1    0    0    0    1    0    0    0  V  1
    Si-1      O-5  3.18876    1    0    0    0    1    1    0    0  V  1
    Si-2      O-4  3.13537    1    0    0    0    1    0    0    0  V  1
    Si-2      O-3  3.14445    1    0    0    0    1    1    0    0  V  1
    Si-2      O-2  3.17623    1    0    0    0    1    0    0    0  V  1
    Si-2      O-1  3.18876    1    0    0    0    1    1    0    0  V  1
    Si-3      O-6  3.20430    1    0    0    0    1    0    0    0  V  1
    Si-3      O-4  3.20120    1    0    0    0    1    0    0    1  V  1
    Si-3     O-13  3.24705    1    0    0    0    1    0   -1    0  V  1
    Si-3     O-25  3.29323    1    0    0    0    1    0    0    0  V  1
    Si-4      O-2  3.20430    1    0    0    0    1    0    0    0  V  1
    Si-4      O-8  3.20120    1    0    0    0    1    0    0    0  V  1
    Si-4      O-9  3.24705    1    0    0    0    1    0    0    0  V  1
    Si-4     O-21  3.29323    1    0    0    0    1    0    0    0  V  1
    Si-5     O-12  3.13537    1    0    0    0    1    0    0    0  V  1
    Si-5     O-11  3.14445    1    0    0    0    1   -1    0    0  V  1
    Si-5     O-10  3.17623    1    0    0    0    1    0    0    0  V  1
    Si-5      O-9  3.18876    1    0    0    0    1   -1    0    0  V  1
    Si-6     O-14  3.20430    1    0    0    0    1    0    0    0  V  1
    Si-6     O-12  3.20120    1    0    0    0    1    0    0    0  V  1
    Si-6      O-5  3.24705    1    0    0    0    1    0    0    0  V  1
    Si-6     O-18  3.29323    1    0    0    0    1    0    0    0  V  1
    Si-7     O-16  3.13537    1    0    0    0    1    0    0    0  V  1
    Si-7     O-15  3.14445    1    0    0    0    1   -1    0    0  V  1
    Si-7     O-14  3.17623    1    0    0    0    1    0    0    0  V  1
    Si-7     O-13  3.18876    1    0    0    0    1   -1    0    0  V  1
    Si-8     O-10  3.20430    1    0    0    0    1    0    0    0  V  1
    Si-8     O-16  3.20120    1    0    0    0    1    0    0   -1  V  1
    Si-8      O-1  3.24705    1    0    0    0    1    0    1    0  V  1
    Si-8     O-29  3.29323    1    0    0    0    1    0    0    0  V  1
    Si-9     O-22  3.13537    1    0    0    0    1    0    0    0  V  1
    Si-9     O-21  3.14445    1    0    0    0    1    0    0    0  V  1
    Si-9     O-20  3.17623    1    0    0    0    1    0    0    0  V  1
    Si-9     O-17  3.18876    1    0    0    0    1    0    0    0  V  1
   Si-10     O-24  3.20430    1    0    0    0    1    0    0    0  V  1
   Si-10     O-22  3.20120    1    0    0    0    1    0    0    0  V  1
   Si-10     O-31  3.24705    1    0    0    0    1    0   -1    0  V  1
   Si-10      O-7  3.29323    1    0    0    0    1    0    0    0  V  1
   Si-11     O-26  3.13537    1    0    0    0    1    0    0    0  V  1
   Si-11     O-25  3.14445    1    0    0    0    1    0    0    0  V  1
   Si-11     O-24  3.17623    1    0    0    0    1    0    0    0  V  1
   Si-11     O-23  3.18876    1    0    0    0    1    0    0    0  V  1
   Si-12     O-20  3.20430    1    0    0    0    1    0    0    0  V  1
   Si-12     O-26  3.20120    1    0    0    0    1    0    0   -1  V  1
   Si-12     O-27  3.24705    1    0    0    0    1    0    0    0  V  1
   Si-12      O-3  3.29323    1    0    0    0    1    0    0    0  V  1
   Si-13     O-30  3.13537    1    0    0    0    1    0    0    0  V  1
   Si-13     O-29  3.14445    1    0    0    0    1    0    0    0  V  1
   Si-13     O-28  3.17623    1    0    0    0    1    0    0    0  V  1
   Si-13     O-27  3.18876    1    0    0    0    1    0    0    0  V  1
   Si-14     O-32  3.20430    1    0    0    0    1    0    0    0  V  1
   Si-14     O-30  3.20120    1    0    0    0    1    0    0    1  V  1
   Si-14     O-23  3.24705    1    0    0    0    1    0    0    0  V  1
   Si-14     O-15  3.29323    1    0    0    0    1    0    0    0  V  1
   Si-15     O-19  3.13537    1    0    0    0    1    0    0    0  V  1
   Si-15     O-18  3.14445    1    0    0    0    1    0    0    0  V  1
   Si-15     O-32  3.17623    1    0    0    0    1    0    0    0  V  1
   Si-15     O-31  3.18876    1    0    0    0    1    0    0    0  V  1
   Si-16     O-28  3.20430    1    0    0    0    1    0    0    0  V  1
   Si-16     O-19  3.20120    1    0    0    0    1    0    0    0  V  1
   Si-16     O-17  3.24705    1    0    0    0    1    0    1    0  V  1
   Si-16     O-11  3.29323    1    0    0    0    1    0    0    0  V  1
#End of data_ZIF-4

