data_ZIF-8-cg
_chemical_formula_sum                              'AB4C8D10'
_cell_length_a			16.85090
_cell_length_b			16.85090
_cell_length_c			16.85090
_cell_angle_alpha		90.00000
_cell_angle_beta		90.00000
_cell_angle_gamma		90.00000
_cell_volume			4784.86076
_cell_formula_units_Z		12
_symmetry_space_group_name_H-M	'P 1'
_symmetry_Int_Tables_number	1
loop_
_symmetry_equiv_pos_site_id
_symmetry_equiv_pos_as_xyz
1 x,y,z
loop_
_atom_site_label
_atom_site_type_symbol
_atom_site_symmetry_multiplicity
_atom_site_fract_x
_atom_site_fract_y
_atom_site_fract_z
_atom_site_occupancy
     O-1        O 1   0.3710181800   0.3710181800   0.0171272700  1
     O-2        O 1   0.0171272700   0.6289818200   0.6289818200  1
     O-3        O 1   0.0171272700   0.3710181800   0.3710181800  1
     O-4        O 1   0.6289818200   0.6289818200   0.0171272700  1
     O-5        O 1   0.6289818200   0.0171272700   0.6289818200  1
     O-6        O 1   0.3710181800   0.0171272700   0.3710181800  1
     O-7        O 1   0.4828727300   0.8710181800   0.1289818200  1
     O-8        O 1   0.3710181800   0.9828727300   0.6289818200  1
    Si-1       Si 1   0.5000000000   0.7500000000   0.0000000000  1
     O-9        O 1   0.5171272700   0.8710181800   0.8710181800  1
    Si-2       Si 1   0.5000000000   0.0000000000   0.7500000000  1
    O-10        O 1   0.4828727300   0.1289818200   0.8710181800  1
    Si-3       Si 1   0.5000000000   0.2500000000   0.0000000000  1
    O-11        O 1   0.5171272700   0.1289818200   0.1289818200  1
    O-12        O 1   0.6289818200   0.3710181800   0.9828727300  1
    O-13        O 1   0.3710181800   0.6289818200   0.9828727300  1
    Si-4       Si 1   0.0000000000   0.2500000000   0.5000000000  1
    O-14        O 1   0.1289818200   0.1289818200   0.5171272700  1
    Si-5       Si 1   0.2500000000   0.0000000000   0.5000000000  1
    Si-6       Si 1   0.0000000000   0.5000000000   0.2500000000  1
    Si-7       Si 1   0.5000000000   0.0000000000   0.2500000000  1
    O-15        O 1   0.6289818200   0.9828727300   0.3710181800  1
    O-16        O 1   0.9828727300   0.6289818200   0.3710181800  1
    O-17        O 1   0.8710181800   0.8710181800   0.5171272700  1
    Si-8       Si 1   0.7500000000   0.0000000000   0.5000000000  1
    O-18        O 1   0.8710181800   0.1289818200   0.4828727300  1
    Si-9       Si 1   0.0000000000   0.7500000000   0.5000000000  1
    O-19        O 1   0.1289818200   0.8710181800   0.4828727300  1
   Si-10       Si 1   0.2500000000   0.5000000000   0.0000000000  1
    O-20        O 1   0.1289818200   0.5171272700   0.1289818200  1
    O-21        O 1   0.9828727300   0.3710181800   0.6289818200  1
   Si-11       Si 1   0.0000000000   0.5000000000   0.7500000000  1
    O-22        O 1   0.1289818200   0.4828727300   0.8710181800  1
    O-23        O 1   0.8710181800   0.4828727300   0.1289818200  1
   Si-12       Si 1   0.7500000000   0.5000000000   0.0000000000  1
    O-24        O 1   0.8710181800   0.5171272700   0.8710181800  1
loop_
_topol_link.node_label_1
_topol_link.node_label_2
_topol_link.distance
_topol_link.site_symmetry_symop_1
_topol_link.site_symmetry_translation_1_x
_topol_link.site_symmetry_translation_1_y
_topol_link.site_symmetry_translation_1_z
_topol_link.site_symmetry_symop_2
_topol_link.site_symmetry_translation_2_x
_topol_link.site_symmetry_translation_2_y
_topol_link.site_symmetry_translation_2_z
_topol_link.type
_topol_link.multiplicity
     O-1     Si-3  2.99430    1    0    0    0    1    0    0    0  V  1
     O-1    Si-10  2.99430    1    0    0    0    1    0    0    0  V  1
     O-2    Si-11  2.99430    1    0    0    0    1    0    0    0  V  1
     O-2     Si-9  2.99430    1    0    0    0    1    0    0    0  V  1
     O-3     Si-4  2.99430    1    0    0    0    1    0    0    0  V  1
     O-3     Si-6  2.99430    1    0    0    0    1    0    0    0  V  1
     O-4    Si-12  2.99430    1    0    0    0    1    0    0    0  V  1
     O-4     Si-1  2.99430    1    0    0    0    1    0    0    0  V  1
     O-5     Si-2  2.99430    1    0    0    0    1    0    0    0  V  1
     O-5     Si-8  2.99430    1    0    0    0    1    0    0    0  V  1
     O-6     Si-5  2.99430    1    0    0    0    1    0    0    0  V  1
     O-6     Si-7  2.99430    1    0    0    0    1    0    0    0  V  1
     O-7     Si-7  2.99430    1    0    0    0    1    0    1    0  V  1
     O-7     Si-1  2.99430    1    0    0    0    1    0    0    0  V  1
     O-8     Si-5  2.99430    1    0    0    0    1    0    1    0  V  1
     O-8     Si-2  2.99430    1    0    0    0    1    0    1    0  V  1
    Si-1      O-9  2.99430    1    0    0    0    1    0    0   -1  V  1
    Si-1     O-13  2.99430    1    0    0    0    1    0    0   -1  V  1
     O-9     Si-2  2.99430    1    0    0    0    1    0    1    0  V  1
    Si-2     O-10  2.99430    1    0    0    0    1    0    0    0  V  1
    O-10     Si-3  2.99430    1    0    0    0    1    0    0    1  V  1
    Si-3     O-11  2.99430    1    0    0    0    1    0    0    0  V  1
    Si-3     O-12  2.99430    1    0    0    0    1    0    0   -1  V  1
    O-11     Si-7  2.99430    1    0    0    0    1    0    0    0  V  1
    O-12    Si-12  2.99430    1    0    0    0    1    0    0    1  V  1
    O-13    Si-10  2.99430    1    0    0    0    1    0    0    1  V  1
    Si-4     O-18  2.99430    1    0    0    0    1   -1    0    0  V  1
    Si-4     O-21  2.99430    1    0    0    0    1   -1    0    0  V  1
    Si-4     O-14  2.99430    1    0    0    0    1    0    0    0  V  1
    O-14     Si-5  2.99430    1    0    0    0    1    0    0    0  V  1
    Si-5     O-19  2.99430    1    0    0    0    1    0   -1    0  V  1
    Si-6     O-16  2.99430    1    0    0    0    1   -1    0    0  V  1
    Si-6     O-20  2.99430    1    0    0    0    1    0    0    0  V  1
    Si-6     O-23  2.99430    1    0    0    0    1   -1    0    0  V  1
    Si-7     O-15  2.99430    1    0    0    0    1    0   -1    0  V  1
    O-15     Si-8  2.99430    1    0    0    0    1    0    1    0  V  1
    O-16     Si-9  2.99430    1    0    0    0    1    1    0    0  V  1
    O-17     Si-8  2.99430    1    0    0    0    1    0    1    0  V  1
    O-17     Si-9  2.99430    1    0    0    0    1    1    0    0  V  1
    Si-8     O-18  2.99430    1    0    0    0    1    0    0    0  V  1
    Si-9     O-19  2.99430    1    0    0    0    1    0    0    0  V  1
   Si-10     O-20  2.99430    1    0    0    0    1    0    0    0  V  1
   Si-10     O-22  2.99430    1    0    0    0    1    0    0   -1  V  1
    O-21    Si-11  2.99430    1    0    0    0    1    1    0    0  V  1
   Si-11     O-24  2.99430    1    0    0    0    1   -1    0    0  V  1
   Si-11     O-22  2.99430    1    0    0    0    1    0    0    0  V  1
    O-23    Si-12  2.99430    1    0    0    0    1    0    0    0  V  1
   Si-12     O-24  2.99430    1    0    0    0    1    0    0   -1  V  1
#End of data_ZIF-8-cg

